<?xml version="1.0" ?>
<!-- Generated by MOSAIC scenario-convert 23.1 -->
<routes>
	<vType id="default" length="7.5" maxSpeed="50" minGap="2.0" carFollowModel="Krauss" accel="0.80" decel="4.5" sigma="0.5" tau="1"/>
	<route id="r_29" edges="11580205_103236776_103222486 11578021_103222486_103222487" />
	<route id="r_26" edges="11580205_103236778_103236777 11580277_103236777_103227786" />
	<route id="r_25" edges="11580277_103237259_103236777 11580205_103236777_103222486 11580205_103222486_103236776" />
	<route id="r_28" edges="11580205_103236778_103236777 11580205_103236777_103222486 11578021_103222486_103222485" />
	<route id="r_27" edges="11580205_103236778_103236777 11580277_103236777_103237259" />
	<route id="r_22" edges="11580277_103237259_103236777 11580277_103236777_103227786" />
	<route id="r_21" edges="11580277_103237259_103236777 11580205_103236777_103236778" />
	<route id="r_24" edges="11580277_103237259_103236777 11580205_103236777_103222486 11578021_103222486_103222487" />
	<route id="r_23" edges="11580277_103237259_103236777 11580205_103236777_103222486 11578021_103222486_103222485" />
	<route id="r_20" edges="11580277_103227786_103236777 11580205_103236777_103222486 11578021_103222486_103222487" />
	<route id="r_19" edges="11580277_103227786_103236777 11580205_103236777_103222486 11580205_103222486_103236776" />
	<route id="r_18" edges="11580277_103227786_103236777 11580205_103236777_103222486 11578021_103222486_103222485" />
	<route id="r_0" edges="11580205_103236776_103222486 11578021_103222486_103222485" />
	<route id="r_15" edges="11578021_103222487_103222486 11580205_103222486_103236777 11580205_103236777_103236778" />
	<route id="r_2" edges="11580205_103236776_103222486 11580205_103222486_103236777 11580277_103236777_103237259" />
	<route id="r_1" edges="11580205_103236776_103222486 11580205_103222486_103236777 11580277_103236777_103227786" />
	<route id="r_14" edges="11578021_103222487_103222486 11580205_103222486_103236777 11580277_103236777_103227786" />
	<route id="r_17" edges="11580277_103227786_103236777 11580277_103236777_103237259" />
	<route id="r_4" edges="11580205_103236776_103222486 11578021_103222486_103222485 11578870_103222485_103227786 11580277_103227786_103236777 11580205_103236777_103236778" />
	<route id="r_16" edges="11580277_103227786_103236777 11580205_103236777_103236778" />
	<route id="r_3" edges="11580205_103236776_103222486 11580205_103222486_103236777 11580205_103236777_103236778" />
	<route id="r_6" edges="11578021_103222485_103222486 11580205_103222486_103236776" />
	<route id="r_5" edges="11580205_103236776_103222486 11578021_103222486_103222487 11587619_103222487_103237259 11580277_103237259_103236777 11580205_103236777_103236778" />
	<route id="r_8" edges="11578021_103222485_103222486 11580205_103222486_103236777 11580205_103236777_103236778" />
	<route id="r_7" edges="11578021_103222485_103222486 11578021_103222486_103222487" />
	<route id="r_9" edges="11578021_103222485_103222486 11580205_103222486_103236777 11580277_103236777_103237259" />
	<route id="r_11" edges="11578021_103222487_103222486 11580205_103222486_103236776" />
	<route id="r_33" edges="11580205_103236778_103236777 11580277_103236777_103237259 11587619_103237259_103222487 11578021_103222487_103222486 11580205_103222486_103236776" />
	<route id="r_10" edges="11578021_103222485_103222486 11580205_103222486_103236777 11580277_103236777_103227786" />
	<route id="r_32" edges="11580205_103236778_103236777 11580277_103236777_103227786 11578870_103227786_103222485 11578021_103222485_103222486 11580205_103222486_103236776" />
	<route id="r_13" edges="11578021_103222487_103222486 11580205_103222486_103236777 11580277_103236777_103237259" />
	<route id="r_12" edges="11578021_103222487_103222486 11578021_103222486_103222485" />
	<route id="r_31" edges="11580205_103236778_103236777 11580205_103236777_103222486 11580205_103222486_103236776" />
	<route id="r_30" edges="11580205_103236778_103236777 11580205_103236777_103222486 11578021_103222486_103222487" />
</routes>