<nodes>
	<node id="103222485" x="580477.33" y="4538441.78" z="0.00" type="priority" />
	<node id="103222486" x="580435.36" y="4538340.74" z="0.00" type="priority" />
	<node id="103222487" x="580403.89" y="4538265.12" z="0.00" type="priority" />
	<node id="103227786" x="580589.62" y="4538396.72" z="0.00" type="priority" />
	<node id="103236776" x="580319.43" y="4538387.76" z="0.00" type="priority" />
	<node id="103236777" x="580545.97" y="4538295.87" z="0.00" type="priority" />
	<node id="103236778" x="580702.80" y="4538232.42" z="0.00" type="priority" />
	<node id="103237259" x="580512.91" y="4538219.35" z="0.00" type="priority" />
</nodes>
