<edges>
	<edge id="11578021_103222485_103222486" from="103222485" to="103222486" numLanes="1" shape="580477.33,4538441.78,0.00 580435.36,4538340.74,0.00" speed="8.33" />
	<edge id="11580205_103222486_103236777" from="103222486" to="103236777" numLanes="1" shape="580435.36,4538340.74,0.00 580545.97,4538295.87,0.00" speed="8.33" />
	<edge id="11580277_103227786_103236777" from="103227786" to="103236777" numLanes="1" shape="580589.62,4538396.72,0.00 580545.97,4538295.87,0.00" speed="8.33" />
	<edge id="11587619_103222487_103237259" from="103222487" to="103237259" numLanes="1" shape="580403.89,4538265.12,0.00 580512.91,4538219.35,0.00" speed="8.33" />
	<edge id="11578021_103222486_103222487" from="103222486" to="103222487" numLanes="1" shape="580435.36,4538340.74,0.00 580403.89,4538265.12,0.00" speed="8.33" />
	<edge id="11580205_103222486_103236776" from="103222486" to="103236776" numLanes="1" shape="580435.36,4538340.74,0.00 580319.43,4538387.76,0.00" speed="8.33" />
	<edge id="11580205_103236777_103222486" from="103236777" to="103222486" numLanes="1" shape="580545.97,4538295.87,0.00 580435.36,4538340.74,0.00" speed="8.33" />
	<edge id="11580277_103237259_103236777" from="103237259" to="103236777" numLanes="1" shape="580512.91,4538219.35,0.00 580545.97,4538295.87,0.00" speed="8.33" />
	<edge id="11578021_103222486_103222485" from="103222486" to="103222485" numLanes="1" shape="580435.36,4538340.74,0.00 580477.33,4538441.78,0.00" speed="8.33" />
	<edge id="11580205_103236776_103222486" from="103236776" to="103222486" numLanes="1" shape="580319.43,4538387.76,0.00 580435.36,4538340.74,0.00" speed="8.33" />
	<edge id="11580277_103236777_103237259" from="103236777" to="103237259" numLanes="1" shape="580545.97,4538295.87,0.00 580512.91,4538219.35,0.00" speed="8.33" />
	<edge id="11578021_103222487_103222486" from="103222487" to="103222486" numLanes="1" shape="580403.89,4538265.12,0.00 580435.36,4538340.74,0.00" speed="8.33" />
	<edge id="11580205_103236778_103236777" from="103236778" to="103236777" numLanes="1" shape="580702.80,4538232.42,0.00 580545.97,4538295.87,0.00" speed="8.33" />
	<edge id="11587619_103237259_103222487" from="103237259" to="103222487" numLanes="1" shape="580512.91,4538219.35,0.00 580403.89,4538265.12,0.00" speed="8.33" />
	<edge id="11578870_103227786_103222485" from="103227786" to="103222485" numLanes="1" shape="580589.62,4538396.72,0.00 580477.33,4538441.78,0.00" speed="8.33" />
	<edge id="11578870_103222485_103227786" from="103222485" to="103227786" numLanes="1" shape="580477.33,4538441.78,0.00 580589.62,4538396.72,0.00" speed="8.33" />
	<edge id="11580205_103236777_103236778" from="103236777" to="103236778" numLanes="1" shape="580545.97,4538295.87,0.00 580702.80,4538232.42,0.00" speed="8.33" />
	<edge id="11580277_103236777_103227786" from="103236777" to="103227786" numLanes="1" shape="580545.97,4538295.87,0.00 580589.62,4538396.72,0.00" speed="8.33" />
</edges>
