<configuration>
	<input>
		<net-file value="projeto.net.xml" />
		<route-files value="projeto.rou.xml" />
	</input>
	<time>
		<begin value="0" />
		<end value="1000" />
		<step-length value="0.1"/>
	</time>
</configuration>
