<connections>
	<connection from="11578021_103222485_103222486" to="11580205_103222486_103236777" />
	<connection from="11578021_103222485_103222486" to="11578021_103222486_103222487" />
	<connection from="11578021_103222485_103222486" to="11580205_103222486_103236776" />
	<connection from="11578021_103222485_103222486" to="11578021_103222486_103222485" />
	<connection from="11580205_103222486_103236777" to="11580205_103236777_103222486" />
	<connection from="11580205_103222486_103236777" to="11580205_103236777_103236778" />
	<connection from="11580205_103222486_103236777" to="11580277_103236777_103237259" />
	<connection from="11580205_103222486_103236777" to="11580277_103236777_103227786" />
	<connection from="11580277_103227786_103236777" to="11580205_103236777_103222486" />
	<connection from="11580277_103227786_103236777" to="11580205_103236777_103236778" />
	<connection from="11580277_103227786_103236777" to="11580277_103236777_103237259" />
	<connection from="11580277_103227786_103236777" to="11580277_103236777_103227786" />
	<connection from="11587619_103222487_103237259" to="11587619_103237259_103222487" />
	<connection from="11587619_103222487_103237259" to="11580277_103237259_103236777" />
	<connection from="11578021_103222486_103222487" to="11587619_103222487_103237259" />
	<connection from="11578021_103222486_103222487" to="11578021_103222487_103222486" />
	<connection from="11580205_103222486_103236776" to="11580205_103236776_103222486" />
	<connection from="11580205_103236777_103222486" to="11580205_103222486_103236777" />
	<connection from="11580205_103236777_103222486" to="11578021_103222486_103222487" />
	<connection from="11580205_103236777_103222486" to="11580205_103222486_103236776" />
	<connection from="11580205_103236777_103222486" to="11578021_103222486_103222485" />
	<connection from="11580277_103237259_103236777" to="11580205_103236777_103222486" />
	<connection from="11580277_103237259_103236777" to="11580205_103236777_103236778" />
	<connection from="11580277_103237259_103236777" to="11580277_103236777_103237259" />
	<connection from="11580277_103237259_103236777" to="11580277_103236777_103227786" />
	<connection from="11578021_103222486_103222485" to="11578021_103222485_103222486" />
	<connection from="11578021_103222486_103222485" to="11578870_103222485_103227786" />
	<connection from="11580205_103236776_103222486" to="11580205_103222486_103236777" />
	<connection from="11580205_103236776_103222486" to="11578021_103222486_103222487" />
	<connection from="11580205_103236776_103222486" to="11580205_103222486_103236776" />
	<connection from="11580205_103236776_103222486" to="11578021_103222486_103222485" />
	<connection from="11580277_103236777_103237259" to="11587619_103237259_103222487" />
	<connection from="11580277_103236777_103237259" to="11580277_103237259_103236777" />
	<connection from="11578021_103222487_103222486" to="11580205_103222486_103236777" />
	<connection from="11578021_103222487_103222486" to="11578021_103222486_103222487" />
	<connection from="11578021_103222487_103222486" to="11580205_103222486_103236776" />
	<connection from="11578021_103222487_103222486" to="11578021_103222486_103222485" />
	<connection from="11580205_103236778_103236777" to="11580205_103236777_103222486" />
	<connection from="11580205_103236778_103236777" to="11580205_103236777_103236778" />
	<connection from="11580205_103236778_103236777" to="11580277_103236777_103237259" />
	<connection from="11580205_103236778_103236777" to="11580277_103236777_103227786" />
	<connection from="11587619_103237259_103222487" to="11587619_103222487_103237259" />
	<connection from="11587619_103237259_103222487" to="11578021_103222487_103222486" />
	<connection from="11578870_103227786_103222485" to="11578021_103222485_103222486" />
	<connection from="11578870_103227786_103222485" to="11578870_103222485_103227786" />
	<connection from="11578870_103222485_103227786" to="11580277_103227786_103236777" />
	<connection from="11578870_103222485_103227786" to="11578870_103227786_103222485" />
	<connection from="11580205_103236777_103236778" to="11580205_103236778_103236777" />
	<connection from="11580277_103236777_103227786" to="11580277_103227786_103236777" />
	<connection from="11580277_103236777_103227786" to="11578870_103227786_103222485" />
</connections>
